src/res/MatPower Data/t_case3p_large_progress.m
function mpc = t_case3p_large_progress
% t_case3p_large_progress - Synthetic 30-bus three-phase radial feeder.
% This file is intended only for testing converter progress on a larger input.

%% MATPOWER Case Format : Version 2
mpc.version = '2';

%%-----  Power Flow Data  -----%%
mpc.baseMVA = 100;
mpc.bus = [];
mpc.gen = [];
mpc.branch = [];
mpc.gencost = [];

%%-----  3 Phase Model Data  -----%%
mpc.freq = 60;
mpc.basekVA = 10000;

%% 3-phase bus data
%	busid	type	basekV	Vm1	Vm2	Vm3	Va1	Va2	Va3
mpc.bus3p = [
	1	3	12.47	1	1	1	0	-120	120;
	2	1	12.47	1	1	1	0	-120	120;
	3	1	12.47	1	1	1	0	-120	120;
	4	1	12.47	1	1	1	0	-120	120;
	5	1	12.47	1	1	1	0	-120	120;
	6	1	12.47	1	1	1	0	-120	120;
	7	1	12.47	1	1	1	0	-120	120;
	8	1	12.47	1	1	1	0	-120	120;
	9	1	12.47	1	1	1	0	-120	120;
	10	1	12.47	1	1	1	0	-120	120;
	11	1	12.47	1	1	1	0	-120	120;
	12	1	12.47	1	1	1	0	-120	120;
	13	1	12.47	1	1	1	0	-120	120;
	14	1	12.47	1	1	1	0	-120	120;
	15	1	12.47	1	1	1	0	-120	120;
	16	1	12.47	1	1	1	0	-120	120;
	17	1	12.47	1	1	1	0	-120	120;
	18	1	12.47	1	1	1	0	-120	120;
	19	1	12.47	1	1	1	0	-120	120;
	20	1	12.47	1	1	1	0	-120	120;
	21	1	12.47	1	1	1	0	-120	120;
	22	1	12.47	1	1	1	0	-120	120;
	23	1	12.47	1	1	1	0	-120	120;
	24	1	12.47	1	1	1	0	-120	120;
	25	1	12.47	1	1	1	0	-120	120;
	26	1	12.47	1	1	1	0	-120	120;
	27	1	12.47	1	1	1	0	-120	120;
	28	1	12.47	1	1	1	0	-120	120;
	29	1	12.47	1	1	1	0	-120	120;
	30	1	12.47	1	1	1	0	-120	120;
];

%% buslink data
mpc.buslink = [];

%% 3-phase line data
%	brid	fbus	tbus	status	lcid	len
mpc.line3p = [
	1	1	2	1	1	0.15;
	2	2	3	1	1	0.16;
	3	3	4	1	1	0.17;
	4	4	5	1	1	0.18;
	5	5	6	1	1	0.15;
	6	6	7	1	1	0.16;
	7	7	8	1	1	0.17;
	8	8	9	1	1	0.18;
	9	9	10	1	1	0.15;
	10	10	11	1	1	0.16;
	11	11	12	1	1	0.17;
	12	12	13	1	1	0.18;
	13	13	14	1	1	0.15;
	14	14	15	1	1	0.16;
	15	15	16	1	1	0.17;
	16	16	17	1	1	0.18;
	17	17	18	1	1	0.15;
	18	18	19	1	1	0.16;
	19	19	20	1	1	0.17;
	20	20	21	1	1	0.18;
	21	21	22	1	1	0.15;
	22	22	23	1	1	0.16;
	23	23	24	1	1	0.17;
	24	24	25	1	1	0.18;
	25	25	26	1	1	0.15;
	26	26	27	1	1	0.16;
	27	27	28	1	1	0.17;
	28	28	29	1	1	0.18;
	29	29	30	1	1	0.15;
];

%% 3-phase transformer data
mpc.xfmr3p = [];

%% 3-phase shunt data
mpc.shunt3p = [
	1	10	1	0	0	0	10	8	9;
	2	20	1	0	0	0	8	9	7;
];

%% 3-phase load data
%	ldid	ldbus	status	Pd1	Pd2	Pd3	ldpf1	ldpf2	ldpf3
mpc.load3p = [
	1	2	1	45	38	42	0.94	0.95	0.93;
	2	3	1	52	44	49	0.93	0.95	0.94;
	3	4	1	58	47	53	0.92	0.94	0.95;
	4	5	1	61	50	57	0.94	0.93	0.95;
	5	6	1	48	42	45	0.95	0.94	0.93;
	6	7	1	55	49	52	0.93	0.95	0.94;
	7	8	1	63	51	59	0.92	0.94	0.95;
	8	9	1	66	54	61	0.94	0.93	0.95;
	9	10	1	50	43	46	0.95	0.94	0.93;
	10	11	1	57	48	54	0.93	0.95	0.94;
	11	12	1	64	52	60	0.92	0.94	0.95;
	12	13	1	68	55	63	0.94	0.93	0.95;
	13	14	1	51	45	48	0.95	0.94	0.93;
	14	15	1	59	50	55	0.93	0.95	0.94;
	15	16	1	65	53	62	0.92	0.94	0.95;
	16	17	1	69	56	64	0.94	0.93	0.95;
	17	18	1	53	46	50	0.95	0.94	0.93;
	18	19	1	60	51	56	0.93	0.95	0.94;
	19	20	1	67	54	63	0.92	0.94	0.95;
	20	21	1	70	57	65	0.94	0.93	0.95;
	21	22	1	54	47	51	0.95	0.94	0.93;
	22	23	1	61	52	57	0.93	0.95	0.94;
	23	24	1	68	55	64	0.92	0.94	0.95;
	24	25	1	72	58	66	0.94	0.93	0.95;
	25	26	1	56	48	52	0.95	0.94	0.93;
	26	27	1	62	53	58	0.93	0.95	0.94;
	27	28	1	69	56	65	0.92	0.94	0.95;
	28	29	1	73	59	67	0.94	0.93	0.95;
	29	30	1	58	50	54	0.95	0.94	0.93;
];

%% 3-phase generator data
mpc.gen3p = [
	1	1	1	1	1	1	2400	2200	2300	0	0	0;
];

%% line construction data
%	lcid	R11	R21	R31	R22	R32	R33	X11	X21	X31	X22	X32	X33	C11	C21	C31	C22	C32	C33
mpc.lc = [
	1	0.457541	0.15594	0.153474	0.466617	0.157996	0.461462	1.078	0.501648	0.384909	1.04813	0.423624	1.06502	15.0671	-4.86241	-1.85323	15.875	-3.09098	14.3254;
];
